<?xml version="1.0" ?>
<template encoding-version="1.1">
  <description></description>
  <groupId>c427618e-0160-1000-1cf2-e894411940da</groupId>
  <name>DZ_NiFi_Flow</name>
  <snippet>
    <processGroups>
      <id>8f17a414-0937-3aac-0000-000000000000</id>
      <parentGroupId>d40bad8f-6b6c-353c-0000-000000000000</parentGroupId>
      <position>
        <x>0.0</x>
        <y>455.4220288575914</y>
      </position>
      <comments></comments>
      <contents>
        <connections>
          <id>a5f35e93-7816-3e98-0000-000000000000</id>
          <parentGroupId>8f17a414-0937-3aac-0000-000000000000</parentGroupId>
          <backPressureDataSizeThreshold>1 GB</backPressureDataSizeThreshold>
          <backPressureObjectThreshold>10000</backPressureObjectThreshold>
          <destination>
            <groupId>8f17a414-0937-3aac-0000-000000000000</groupId>
            <id>fb30653b-daa5-34e6-0000-000000000000</id>
            <type>PROCESSOR</type>
          </destination>
          <flowFileExpiration>0 sec</flowFileExpiration>
          <labelIndex>1</labelIndex>
          <name></name>
          <selectedRelationships>matched</selectedRelationships>
          <source>
            <groupId>8f17a414-0937-3aac-0000-000000000000</groupId>
            <id>10394b0a-8035-37a3-0000-000000000000</id>
            <type>PROCESSOR</type>
          </source>
          <zIndex>0</zIndex>
        </connections>
        <connections>
          <id>c2821359-24f4-312f-0000-000000000000</id>
          <parentGroupId>8f17a414-0937-3aac-0000-000000000000</parentGroupId>
          <backPressureDataSizeThreshold>1 GB</backPressureDataSizeThreshold>
          <backPressureObjectThreshold>10000</backPressureObjectThreshold>
          <destination>
            <groupId>8f17a414-0937-3aac-0000-000000000000</groupId>
            <id>96ec6b57-44cc-3ef9-0000-000000000000</id>
            <type>PROCESSOR</type>
          </destination>
          <flowFileExpiration>0 sec</flowFileExpiration>
          <labelIndex>1</labelIndex>
          <name></name>
          <selectedRelationships>success</selectedRelationships>
          <source>
            <groupId>8f17a414-0937-3aac-0000-000000000000</groupId>
            <id>7b161198-ec37-3de1-0000-000000000000</id>
            <type>PROCESSOR</type>
          </source>
          <zIndex>0</zIndex>
        </connections>
        <connections>
          <id>e458e5f0-b70f-3c19-0000-000000000000</id>
          <parentGroupId>8f17a414-0937-3aac-0000-000000000000</parentGroupId>
          <backPressureDataSizeThreshold>1 GB</backPressureDataSizeThreshold>
          <backPressureObjectThreshold>10000</backPressureObjectThreshold>
          <destination>
            <groupId>8f17a414-0937-3aac-0000-000000000000</groupId>
            <id>3ee1ed62-7f0b-3306-0000-000000000000</id>
            <type>PROCESSOR</type>
          </destination>
          <flowFileExpiration>0 sec</flowFileExpiration>
          <labelIndex>1</labelIndex>
          <name></name>
          <selectedRelationships>success</selectedRelationships>
          <source>
            <groupId>8f17a414-0937-3aac-0000-000000000000</groupId>
            <id>fb30653b-daa5-34e6-0000-000000000000</id>
            <type>PROCESSOR</type>
          </source>
          <zIndex>0</zIndex>
        </connections>
        <connections>
          <id>e9f6d3c8-b1ae-36ee-0000-000000000000</id>
          <parentGroupId>8f17a414-0937-3aac-0000-000000000000</parentGroupId>
          <backPressureDataSizeThreshold>1 GB</backPressureDataSizeThreshold>
          <backPressureObjectThreshold>10000</backPressureObjectThreshold>
          <destination>
            <groupId>8f17a414-0937-3aac-0000-000000000000</groupId>
            <id>10394b0a-8035-37a3-0000-000000000000</id>
            <type>PROCESSOR</type>
          </destination>
          <flowFileExpiration>0 sec</flowFileExpiration>
          <labelIndex>1</labelIndex>
          <name></name>
          <selectedRelationships>success</selectedRelationships>
          <source>
            <groupId>8f17a414-0937-3aac-0000-000000000000</groupId>
            <id>02328f91-2f86-3dcd-0000-000000000000</id>
            <type>PROCESSOR</type>
          </source>
          <zIndex>0</zIndex>
        </connections>
        <connections>
          <id>eb49a5f5-fb5b-329f-0000-000000000000</id>
          <parentGroupId>8f17a414-0937-3aac-0000-000000000000</parentGroupId>
          <backPressureDataSizeThreshold>1 GB</backPressureDataSizeThreshold>
          <backPressureObjectThreshold>10000</backPressureObjectThreshold>
          <bends>
            <x>1829.0892429074338</x>
            <y>118.40566012523254</y>
          </bends>
          <bends>
            <x>1829.0892429074338</x>
            <y>168.40566012523254</y>
          </bends>
          <destination>
            <groupId>8f17a414-0937-3aac-0000-000000000000</groupId>
            <id>10394b0a-8035-37a3-0000-000000000000</id>
            <type>PROCESSOR</type>
          </destination>
          <flowFileExpiration>0 sec</flowFileExpiration>
          <labelIndex>1</labelIndex>
          <name></name>
          <selectedRelationships>unmatched</selectedRelationships>
          <source>
            <groupId>8f17a414-0937-3aac-0000-000000000000</groupId>
            <id>10394b0a-8035-37a3-0000-000000000000</id>
            <type>PROCESSOR</type>
          </source>
          <zIndex>0</zIndex>
        </connections>
        <connections>
          <id>09cf90c4-9555-3208-0000-000000000000</id>
          <parentGroupId>8f17a414-0937-3aac-0000-000000000000</parentGroupId>
          <backPressureDataSizeThreshold>1 GB</backPressureDataSizeThreshold>
          <backPressureObjectThreshold>10000</backPressureObjectThreshold>
          <destination>
            <groupId>8f17a414-0937-3aac-0000-000000000000</groupId>
            <id>c4dfb9ea-cb86-3a03-0000-000000000000</id>
            <type>PROCESSOR</type>
          </destination>
          <flowFileExpiration>0 sec</flowFileExpiration>
          <labelIndex>1</labelIndex>
          <name></name>
          <selectedRelationships>failure</selectedRelationships>
          <selectedRelationships>success</selectedRelationships>
          <source>
            <groupId>8f17a414-0937-3aac-0000-000000000000</groupId>
            <id>36e60f77-42bf-3042-0000-000000000000</id>
            <type>PROCESSOR</type>
          </source>
          <zIndex>0</zIndex>
        </connections>
        <connections>
          <id>14468408-ac85-3043-0000-000000000000</id>
          <parentGroupId>8f17a414-0937-3aac-0000-000000000000</parentGroupId>
          <backPressureDataSizeThreshold>1 GB</backPressureDataSizeThreshold>
          <backPressureObjectThreshold>10000</backPressureObjectThreshold>
          <destination>
            <groupId>8f17a414-0937-3aac-0000-000000000000</groupId>
            <id>570d63b1-2e5f-390b-0000-000000000000</id>
            <type>PROCESSOR</type>
          </destination>
          <flowFileExpiration>0 sec</flowFileExpiration>
          <labelIndex>1</labelIndex>
          <name></name>
          <selectedRelationships>success</selectedRelationships>
          <source>
            <groupId>8f17a414-0937-3aac-0000-000000000000</groupId>
            <id>3ee1ed62-7f0b-3306-0000-000000000000</id>
            <type>PROCESSOR</type>
          </source>
          <zIndex>0</zIndex>
        </connections>
        <connections>
          <id>4033d461-492e-3b07-0000-000000000000</id>
          <parentGroupId>8f17a414-0937-3aac-0000-000000000000</parentGroupId>
          <backPressureDataSizeThreshold>1 GB</backPressureDataSizeThreshold>
          <backPressureObjectThreshold>10000</backPressureObjectThreshold>
          <destination>
            <groupId>8f17a414-0937-3aac-0000-000000000000</groupId>
            <id>36e60f77-42bf-3042-0000-000000000000</id>
            <type>PROCESSOR</type>
          </destination>
          <flowFileExpiration>0 sec</flowFileExpiration>
          <labelIndex>1</labelIndex>
          <name></name>
          <selectedRelationships>success</selectedRelationships>
          <source>
            <groupId>8f17a414-0937-3aac-0000-000000000000</groupId>
            <id>46501fd0-02d7-3544-0000-000000000000</id>
            <type>PROCESSOR</type>
          </source>
          <zIndex>0</zIndex>
        </connections>
        <connections>
          <id>70325870-4fe4-3657-0000-000000000000</id>
          <parentGroupId>8f17a414-0937-3aac-0000-000000000000</parentGroupId>
          <backPressureDataSizeThreshold>1 GB</backPressureDataSizeThreshold>
          <backPressureObjectThreshold>10000</backPressureObjectThreshold>
          <destination>
            <groupId>8f17a414-0937-3aac-0000-000000000000</groupId>
            <id>7b161198-ec37-3de1-0000-000000000000</id>
            <type>PROCESSOR</type>
          </destination>
          <flowFileExpiration>0 sec</flowFileExpiration>
          <labelIndex>1</labelIndex>
          <name></name>
          <selectedRelationships>merged</selectedRelationships>
          <source>
            <groupId>8f17a414-0937-3aac-0000-000000000000</groupId>
            <id>570d63b1-2e5f-390b-0000-000000000000</id>
            <type>PROCESSOR</type>
          </source>
          <zIndex>0</zIndex>
        </connections>
        <processors>
          <id>96ec6b57-44cc-3ef9-0000-000000000000</id>
          <parentGroupId>8f17a414-0937-3aac-0000-000000000000</parentGroupId>
          <position>
            <x>857.7747446601041</x>
            <y>684.3931947605863</y>
          </position>
          <bundle>
            <artifact>nifi-hadoop-nar</artifact>
            <group>org.apache.nifi</group>
            <version>1.4.0</version>
          </bundle>
          <config>
            <bulletinLevel>WARN</bulletinLevel>
            <comments>
            </comments>
            <concurrentlySchedulableTaskCount>5</concurrentlySchedulableTaskCount>
            <descriptors>
              <entry>
                <key>Hadoop Configuration Resources</key>
                <value>
                  <name>Hadoop Configuration Resources</name>
                </value>
              </entry>
              <entry>
                <key>Kerberos Principal</key>
                <value>
                  <name>Kerberos Principal</name>
                </value>
              </entry>
              <entry>
                <key>Kerberos Keytab</key>
                <value>
                  <name>Kerberos Keytab</name>
                </value>
              </entry>
              <entry>
                <key>Kerberos Relogin Period</key>
                <value>
                  <name>Kerberos Relogin Period</name>
                </value>
              </entry>
              <entry>
                <key>Additional Classpath Resources</key>
                <value>
                  <name>Additional Classpath Resources</name>
                </value>
              </entry>
              <entry>
                <key>Directory</key>
                <value>
                  <name>Directory</name>
                </value>
              </entry>
              <entry>
                <key>Conflict Resolution Strategy</key>
                <value>
                  <name>Conflict Resolution Strategy</name>
                </value>
              </entry>
              <entry>
                <key>Block Size</key>
                <value>
                  <name>Block Size</name>
                </value>
              </entry>
              <entry>
                <key>IO Buffer Size</key>
                <value>
                  <name>IO Buffer Size</name>
                </value>
              </entry>
              <entry>
                <key>Replication</key>
                <value>
                  <name>Replication</name>
                </value>
              </entry>
              <entry>
                <key>Permissions umask</key>
                <value>
                  <name>Permissions umask</name>
                </value>
              </entry>
              <entry>
                <key>Remote Owner</key>
                <value>
                  <name>Remote Owner</name>
                </value>
              </entry>
              <entry>
                <key>Remote Group</key>
                <value>
                  <name>Remote Group</name>
                </value>
              </entry>
              <entry>
                <key>Compression codec</key>
                <value>
                  <name>Compression codec</name>
                </value>
              </entry>
            </descriptors>
            <executionNode>ALL</executionNode>
            <lossTolerant>false</lossTolerant>
            <penaltyDuration>30 sec</penaltyDuration>
            <properties>
              <entry>
                <key>Hadoop Configuration Resources</key>
                <value>/usr/hdp/current/hadoop-client/conf/core-site.xml,/usr/hdp/current/hadoop-client/conf/hdfs-site.xml</value>
              </entry>
              <entry>
                <key>Kerberos Principal</key>
              </entry>
              <entry>
                <key>Kerberos Keytab</key>
              </entry>
              <entry>
                <key>Kerberos Relogin Period</key>
                <value>4 hours</value>
              </entry>
              <entry>
                <key>Additional Classpath Resources</key>
              </entry>
              <entry>
                <key>Directory</key>
                <value>/topics/minifitest/${allAttributes("sourcetype", "host", "source", "syslog_year", "syslog_month", "syslog_day", "syslog_hour"):join("/")}</value>
              </entry>
              <entry>
                <key>Conflict Resolution Strategy</key>
                <value>append</value>
              </entry>
              <entry>
                <key>Block Size</key>
              </entry>
              <entry>
                <key>IO Buffer Size</key>
              </entry>
              <entry>
                <key>Replication</key>
              </entry>
              <entry>
                <key>Permissions umask</key>
                <value>133</value>
              </entry>
              <entry>
                <key>Remote Owner</key>
              </entry>
              <entry>
                <key>Remote Group</key>
              </entry>
              <entry>
                <key>Compression codec</key>
                <value>NONE</value>
              </entry>
            </properties>
            <runDurationMillis>0</runDurationMillis>
            <schedulingPeriod>0 sec</schedulingPeriod>
            <schedulingStrategy>TIMER_DRIVEN</schedulingStrategy>
            <yieldDuration>1 sec</yieldDuration>
          </config>
          <name>PutHDFS-Subdir</name>
          <relationships>
            <autoTerminate>true</autoTerminate>
            <name>failure</name>
          </relationships>
          <relationships>
            <autoTerminate>true</autoTerminate>
            <name>success</name>
          </relationships>
          <state>STOPPED</state>
          <style>
            <entry>
              <key>background-color</key>
              <value>#faf7f7</value>
            </entry>
          </style>
          <type>org.apache.nifi.processors.hadoop.PutHDFS</type>
        </processors>
        <processors>
          <id>c4dfb9ea-cb86-3a03-0000-000000000000</id>
          <parentGroupId>8f17a414-0937-3aac-0000-000000000000</parentGroupId>
          <position>
            <x>257.2321995864187</x>
            <y>517.9886078972568</y>
          </position>
          <bundle>
            <artifact>nifi-kafka-0-10-nar</artifact>
            <group>org.apache.nifi</group>
            <version>1.4.0</version>
          </bundle>
          <config>
            <bulletinLevel>WARN</bulletinLevel>
            <comments></comments>
            <concurrentlySchedulableTaskCount>5</concurrentlySchedulableTaskCount>
            <descriptors>
              <entry>
                <key>bootstrap.servers</key>
                <value>
                  <name>bootstrap.servers</name>
                </value>
              </entry>
              <entry>
                <key>security.protocol</key>
                <value>
                  <name>security.protocol</name>
                </value>
              </entry>
              <entry>
                <key>sasl.kerberos.service.name</key>
                <value>
                  <name>sasl.kerberos.service.name</name>
                </value>
              </entry>
              <entry>
                <key>sasl.kerberos.principal</key>
                <value>
                  <name>sasl.kerberos.principal</name>
                </value>
              </entry>
              <entry>
                <key>sasl.kerberos.keytab</key>
                <value>
                  <name>sasl.kerberos.keytab</name>
                </value>
              </entry>
              <entry>
                <key>ssl.context.service</key>
                <value>
                  <identifiesControllerService>org.apache.nifi.ssl.SSLContextService</identifiesControllerService>
                  <name>ssl.context.service</name>
                </value>
              </entry>
              <entry>
                <key>topic</key>
                <value>
                  <name>topic</name>
                </value>
              </entry>
              <entry>
                <key>acks</key>
                <value>
                  <name>acks</name>
                </value>
              </entry>
              <entry>
                <key>kafka-key</key>
                <value>
                  <name>kafka-key</name>
                </value>
              </entry>
              <entry>
                <key>key-attribute-encoding</key>
                <value>
                  <name>key-attribute-encoding</name>
                </value>
              </entry>
              <entry>
                <key>message-demarcator</key>
                <value>
                  <name>message-demarcator</name>
                </value>
              </entry>
              <entry>
                <key>max.request.size</key>
                <value>
                  <name>max.request.size</name>
                </value>
              </entry>
              <entry>
                <key>ack.wait.time</key>
                <value>
                  <name>ack.wait.time</name>
                </value>
              </entry>
              <entry>
                <key>max.block.ms</key>
                <value>
                  <name>max.block.ms</name>
                </value>
              </entry>
              <entry>
                <key>partitioner.class</key>
                <value>
                  <name>partitioner.class</name>
                </value>
              </entry>
              <entry>
                <key>compression.type</key>
                <value>
                  <name>compression.type</name>
                </value>
              </entry>
            </descriptors>
            <executionNode>ALL</executionNode>
            <lossTolerant>false</lossTolerant>
            <penaltyDuration>30 sec</penaltyDuration>
            <properties>
              <entry>
                <key>bootstrap.servers</key>
                <value>10.10.2.84:6667,10.10.2.87:6667,10.10.2.116:6667</value>
              </entry>
              <entry>
                <key>security.protocol</key>
                <value>PLAINTEXT</value>
              </entry>
              <entry>
                <key>sasl.kerberos.service.name</key>
              </entry>
              <entry>
                <key>sasl.kerberos.principal</key>
              </entry>
              <entry>
                <key>sasl.kerberos.keytab</key>
              </entry>
              <entry>
                <key>ssl.context.service</key>
              </entry>
              <entry>
                <key>topic</key>
                <value>cis-prod_logger.prod.aqx.cequintecid.com_home.elloyd.log-gen</value>
              </entry>
              <entry>
                <key>acks</key>
                <value>1</value>
              </entry>
              <entry>
                <key>kafka-key</key>
              </entry>
              <entry>
                <key>key-attribute-encoding</key>
                <value>utf-8</value>
              </entry>
              <entry>
                <key>message-demarcator</key>
                <value>
</value>
              </entry>
              <entry>
                <key>max.request.size</key>
                <value>1 MB</value>
              </entry>
              <entry>
                <key>ack.wait.time</key>
                <value>5 secs</value>
              </entry>
              <entry>
                <key>max.block.ms</key>
                <value>5 sec</value>
              </entry>
              <entry>
                <key>partitioner.class</key>
                <value>org.apache.nifi.processors.kafka.pubsub.Partitioners$RoundRobinPartitioner</value>
              </entry>
              <entry>
                <key>compression.type</key>
                <value>none</value>
              </entry>
            </properties>
            <runDurationMillis>0</runDurationMillis>
            <schedulingPeriod>0 sec</schedulingPeriod>
            <schedulingStrategy>TIMER_DRIVEN</schedulingStrategy>
            <yieldDuration>1 sec</yieldDuration>
          </config>
          <name>PublishKafka_0_10</name>
          <relationships>
            <autoTerminate>true</autoTerminate>
            <name>failure</name>
          </relationships>
          <relationships>
            <autoTerminate>true</autoTerminate>
            <name>success</name>
          </relationships>
          <state>STOPPED</state>
          <style></style>
          <type>org.apache.nifi.processors.kafka.pubsub.PublishKafka_0_10</type>
        </processors>
        <processors>
          <id>fb30653b-daa5-34e6-0000-000000000000</id>
          <parentGroupId>8f17a414-0937-3aac-0000-000000000000</parentGroupId>
          <position>
            <x>851.5049028405355</x>
            <y>210.59340313020698</y>
          </position>
          <bundle>
            <artifact>nifi-update-attribute-nar</artifact>
            <group>org.apache.nifi</group>
            <version>1.4.0</version>
          </bundle>
          <config>
            <bulletinLevel>WARN</bulletinLevel>
            <comments></comments>
            <concurrentlySchedulableTaskCount>10</concurrentlySchedulableTaskCount>
            <descriptors>
              <entry>
                <key>Delete Attributes Expression</key>
                <value>
                  <name>Delete Attributes Expression</name>
                </value>
              </entry>
              <entry>
                <key>Store State</key>
                <value>
                  <name>Store State</name>
                </value>
              </entry>
              <entry>
                <key>Stateful Variables Initial Value</key>
                <value>
                  <name>Stateful Variables Initial Value</name>
                </value>
              </entry>
              <entry>
                <key>hostsource</key>
                <value>
                  <name>hostsource</name>
                </value>
              </entry>
              <entry>
                <key>sourcetype</key>
                <value>
                  <name>sourcetype</name>
                </value>
              </entry>
              <entry>
                <key>syslog_day</key>
                <value>
                  <name>syslog_day</name>
                </value>
              </entry>
              <entry>
                <key>syslog_hour</key>
                <value>
                  <name>syslog_hour</name>
                </value>
              </entry>
              <entry>
                <key>syslog_minute</key>
                <value>
                  <name>syslog_minute</name>
                </value>
              </entry>
              <entry>
                <key>syslog_month</key>
                <value>
                  <name>syslog_month</name>
                </value>
              </entry>
              <entry>
                <key>syslog_second</key>
                <value>
                  <name>syslog_second</name>
                </value>
              </entry>
              <entry>
                <key>syslog_year</key>
                <value>
                  <name>syslog_year</name>
                </value>
              </entry>
              <entry>
                <key>syslog.millisecond</key>
                <value>
                  <name>syslog.millisecond</name>
                </value>
              </entry>
            </descriptors>
            <executionNode>ALL</executionNode>
            <lossTolerant>false</lossTolerant>
            <penaltyDuration>30 sec</penaltyDuration>
            <properties>
              <entry>
                <key>Delete Attributes Expression</key>
              </entry>
              <entry>
                <key>Store State</key>
                <value>Do not store state</value>
              </entry>
              <entry>
                <key>Stateful Variables Initial Value</key>
              </entry>
              <entry>
                <key>hostsource</key>
                <value>${kafka.topic:substringAfter('_')}</value>
              </entry>
              <entry>
                <key>sourcetype</key>
                <value>${kafka.topic:substringBefore('_')}</value>
              </entry>
              <entry>
                <key>syslog_day</key>
                <value>${syslog_datetime.0:substring(8,10):trim()}</value>
              </entry>
              <entry>
                <key>syslog_hour</key>
                <value>${syslog_datetime.0:substring(11,13):trim()}</value>
              </entry>
              <entry>
                <key>syslog_minute</key>
                <value>${syslog_datetime.0:substring(14,16):trim()}</value>
              </entry>
              <entry>
                <key>syslog_month</key>
                <value>${syslog_datetime.0:substring(5,7):trim()}</value>
              </entry>
              <entry>
                <key>syslog_second</key>
                <value>${syslog_datetime.0:substring(17,19):trim()}</value>
              </entry>
              <entry>
                <key>syslog_year</key>
                <value>${syslog_datetime.0:substring(0,4)}</value>
              </entry>
              <entry>
                <key>syslog.millisecond</key>
                <value>${syslog_datetime.0:substring(20,23):trim()}</value>
              </entry>
            </properties>
            <runDurationMillis>0</runDurationMillis>
            <schedulingPeriod>0 sec</schedulingPeriod>
            <schedulingStrategy>TIMER_DRIVEN</schedulingStrategy>
            <yieldDuration>1 sec</yieldDuration>
          </config>
          <name>Extract from Syslog Datetime</name>
          <relationships>
            <autoTerminate>false</autoTerminate>
            <name>success</name>
          </relationships>
          <state>STOPPED</state>
          <style></style>
          <type>org.apache.nifi.processors.attributes.UpdateAttribute</type>
        </processors>
        <processors>
          <id>02328f91-2f86-3dcd-0000-000000000000</id>
          <parentGroupId>8f17a414-0937-3aac-0000-000000000000</parentGroupId>
          <position>
            <x>851.3509314928395</x>
            <y>-3.4867610048061124</y>
          </position>
          <bundle>
            <artifact>nifi-kafka-0-10-nar</artifact>
            <group>org.apache.nifi</group>
            <version>1.4.0</version>
          </bundle>
          <config>
            <bulletinLevel>WARN</bulletinLevel>
            <comments></comments>
            <concurrentlySchedulableTaskCount>10</concurrentlySchedulableTaskCount>
            <descriptors>
              <entry>
                <key>bootstrap.servers</key>
                <value>
                  <name>bootstrap.servers</name>
                </value>
              </entry>
              <entry>
                <key>security.protocol</key>
                <value>
                  <name>security.protocol</name>
                </value>
              </entry>
              <entry>
                <key>sasl.kerberos.service.name</key>
                <value>
                  <name>sasl.kerberos.service.name</name>
                </value>
              </entry>
              <entry>
                <key>sasl.kerberos.principal</key>
                <value>
                  <name>sasl.kerberos.principal</name>
                </value>
              </entry>
              <entry>
                <key>sasl.kerberos.keytab</key>
                <value>
                  <name>sasl.kerberos.keytab</name>
                </value>
              </entry>
              <entry>
                <key>ssl.context.service</key>
                <value>
                  <identifiesControllerService>org.apache.nifi.ssl.SSLContextService</identifiesControllerService>
                  <name>ssl.context.service</name>
                </value>
              </entry>
              <entry>
                <key>topic</key>
                <value>
                  <name>topic</name>
                </value>
              </entry>
              <entry>
                <key>topic_type</key>
                <value>
                  <name>topic_type</name>
                </value>
              </entry>
              <entry>
                <key>group.id</key>
                <value>
                  <name>group.id</name>
                </value>
              </entry>