<?xml version="1.0" ?>
<template encoding-version="1.1">
  <description></description>
  <groupId>7c84501d-d10c-407c-b9f3-1d80e38fe36a</groupId>
  <name>DZ_NIFI_FLOW</name>
  <snippet>
    <processGroups>
      <id>a3bde8aa-2281-3c0f-0000-000000000000</id>
      <parentGroupId>46f95fe5-3024-31d8-0000-000000000000</parentGroupId>
      <position>
        <x>0.0</x>
        <y>455.4220288575914</y>
      </position>
      <comments></comments>
      <contents>
        <connections>
          <id>b60c2523-69bd-3a6b-0000-000000000000</id>
          <parentGroupId>a3bde8aa-2281-3c0f-0000-000000000000</parentGroupId>
          <backPressureDataSizeThreshold>1 GB</backPressureDataSizeThreshold>
          <backPressureObjectThreshold>10000</backPressureObjectThreshold>
          <bends>
            <x>1829.0892429074338</x>
            <y>118.40566012523254</y>
          </bends>
          <bends>
            <x>1829.0892429074338</x>
            <y>168.40566012523254</y>
          </bends>
          <destination>
            <groupId>a3bde8aa-2281-3c0f-0000-000000000000</groupId>
            <id>8a514207-8235-3a53-0000-000000000000</id>
            <type>PROCESSOR</type>
          </destination>
          <flowFileExpiration>0 sec</flowFileExpiration>
          <labelIndex>1</labelIndex>
          <name></name>
          <selectedRelationships>unmatched</selectedRelationships>
          <source>
            <groupId>a3bde8aa-2281-3c0f-0000-000000000000</groupId>
            <id>8a514207-8235-3a53-0000-000000000000</id>
            <type>PROCESSOR</type>
          </source>
          <zIndex>0</zIndex>
        </connections>
        <connections>
          <id>01a31f97-241f-352b-0000-000000000000</id>
          <parentGroupId>a3bde8aa-2281-3c0f-0000-000000000000</parentGroupId>
          <backPressureDataSizeThreshold>1 GB</backPressureDataSizeThreshold>
          <backPressureObjectThreshold>10000</backPressureObjectThreshold>
          <destination>
            <groupId>a3bde8aa-2281-3c0f-0000-000000000000</groupId>
            <id>8deb8d9a-504d-3481-0000-000000000000</id>
            <type>PROCESSOR</type>
          </destination>
          <flowFileExpiration>0 sec</flowFileExpiration>
          <labelIndex>1</labelIndex>
          <name></name>
          <selectedRelationships>merged</selectedRelationships>
          <source>
            <groupId>a3bde8aa-2281-3c0f-0000-000000000000</groupId>
            <id>c22eeee5-5b2a-3a7c-0000-000000000000</id>
            <type>PROCESSOR</type>
          </source>
          <zIndex>0</zIndex>
        </connections>
        <connections>
          <id>076bdd55-6356-332f-0000-000000000000</id>
          <parentGroupId>a3bde8aa-2281-3c0f-0000-000000000000</parentGroupId>
          <backPressureDataSizeThreshold>1 GB</backPressureDataSizeThreshold>
          <backPressureObjectThreshold>10000</backPressureObjectThreshold>
          <destination>
            <groupId>a3bde8aa-2281-3c0f-0000-000000000000</groupId>
            <id>0734a687-bdb9-3d9b-0000-000000000000</id>
            <type>PROCESSOR</type>
          </destination>
          <flowFileExpiration>0 sec</flowFileExpiration>
          <labelIndex>1</labelIndex>
          <name></name>
          <selectedRelationships>failure</selectedRelationships>
          <selectedRelationships>success</selectedRelationships>
          <source>
            <groupId>a3bde8aa-2281-3c0f-0000-000000000000</groupId>
            <id>d329206a-3089-33f8-0000-000000000000</id>
            <type>PROCESSOR</type>
          </source>
          <zIndex>0</zIndex>
        </connections>
        <connections>
          <id>0fd5fbfb-39ca-3176-0000-000000000000</id>
          <parentGroupId>a3bde8aa-2281-3c0f-0000-000000000000</parentGroupId>
          <backPressureDataSizeThreshold>1 GB</backPressureDataSizeThreshold>
          <backPressureObjectThreshold>10000</backPressureObjectThreshold>
          <destination>
            <groupId>a3bde8aa-2281-3c0f-0000-000000000000</groupId>
            <id>8c85dac0-f6de-3a7c-0000-000000000000</id>
            <type>PROCESSOR</type>
          </destination>
          <flowFileExpiration>0 sec</flowFileExpiration>
          <labelIndex>1</labelIndex>
          <name></name>
          <selectedRelationships>success</selectedRelationships>
          <source>
            <groupId>a3bde8aa-2281-3c0f-0000-000000000000</groupId>
            <id>ccf8c35c-2a61-3c00-0000-000000000000</id>
            <type>PROCESSOR</type>
          </source>
          <zIndex>0</zIndex>
        </connections>
        <connections>
          <id>230f00a3-079c-31bb-0000-000000000000</id>
          <parentGroupId>a3bde8aa-2281-3c0f-0000-000000000000</parentGroupId>
          <backPressureDataSizeThreshold>1 GB</backPressureDataSizeThreshold>
          <backPressureObjectThreshold>10000</backPressureObjectThreshold>
          <destination>
            <groupId>a3bde8aa-2281-3c0f-0000-000000000000</groupId>
            <id>ccf8c35c-2a61-3c00-0000-000000000000</id>
            <type>PROCESSOR</type>
          </destination>
          <flowFileExpiration>0 sec</flowFileExpiration>
          <labelIndex>1</labelIndex>
          <name></name>
          <selectedRelationships>matched</selectedRelationships>
          <source>
            <groupId>a3bde8aa-2281-3c0f-0000-000000000000</groupId>
            <id>8a514207-8235-3a53-0000-000000000000</id>
            <type>PROCESSOR</type>
          </source>
          <zIndex>0</zIndex>
        </connections>
        <connections>
          <id>2e4aaf24-136b-3cbd-0000-000000000000</id>
          <parentGroupId>a3bde8aa-2281-3c0f-0000-000000000000</parentGroupId>
          <backPressureDataSizeThreshold>1 GB</backPressureDataSizeThreshold>
          <backPressureObjectThreshold>10000</backPressureObjectThreshold>
          <destination>
            <groupId>a3bde8aa-2281-3c0f-0000-000000000000</groupId>
            <id>8a514207-8235-3a53-0000-000000000000</id>
            <type>PROCESSOR</type>
          </destination>
          <flowFileExpiration>0 sec</flowFileExpiration>
          <labelIndex>1</labelIndex>
          <name></name>
          <selectedRelationships>success</selectedRelationships>
          <source>
            <groupId>a3bde8aa-2281-3c0f-0000-000000000000</groupId>
            <id>4d4a5a97-cf34-3e60-0000-000000000000</id>
            <type>PROCESSOR</type>
          </source>
          <zIndex>0</zIndex>
        </connections>
        <connections>
          <id>3b2ee4de-8afc-39a4-0000-000000000000</id>
          <parentGroupId>a3bde8aa-2281-3c0f-0000-000000000000</parentGroupId>
          <backPressureDataSizeThreshold>1 GB</backPressureDataSizeThreshold>
          <backPressureObjectThreshold>10000</backPressureObjectThreshold>
          <destination>
            <groupId>a3bde8aa-2281-3c0f-0000-000000000000</groupId>
            <id>c22eeee5-5b2a-3a7c-0000-000000000000</id>
            <type>PROCESSOR</type>
          </destination>
          <flowFileExpiration>0 sec</flowFileExpiration>
          <labelIndex>1</labelIndex>
          <name></name>
          <selectedRelationships>success</selectedRelationships>
          <source>
            <groupId>a3bde8aa-2281-3c0f-0000-000000000000</groupId>
            <id>8c85dac0-f6de-3a7c-0000-000000000000</id>
            <type>PROCESSOR</type>
          </source>
          <zIndex>0</zIndex>
        </connections>
        <connections>
          <id>54b07242-e7c1-3e60-0000-000000000000</id>
          <parentGroupId>a3bde8aa-2281-3c0f-0000-000000000000</parentGroupId>
          <backPressureDataSizeThreshold>1 GB</backPressureDataSizeThreshold>
          <backPressureObjectThreshold>10000</backPressureObjectThreshold>
          <destination>
            <groupId>a3bde8aa-2281-3c0f-0000-000000000000</groupId>
            <id>d329206a-3089-33f8-0000-000000000000</id>
            <type>PROCESSOR</type>
          </destination>
          <flowFileExpiration>0 sec</flowFileExpiration>
          <labelIndex>1</labelIndex>
          <name></name>
          <selectedRelationships>success</selectedRelationships>
          <source>
            <groupId>a3bde8aa-2281-3c0f-0000-000000000000</groupId>
            <id>3f500f18-e6c0-3a31-0000-000000000000</id>
            <type>PROCESSOR</type>
          </source>
          <zIndex>0</zIndex>
        </connections>
        <connections>
          <id>78fd467d-f980-3a12-0000-000000000000</id>
          <parentGroupId>a3bde8aa-2281-3c0f-0000-000000000000</parentGroupId>
          <backPressureDataSizeThreshold>1 GB</backPressureDataSizeThreshold>
          <backPressureObjectThreshold>10000</backPressureObjectThreshold>
          <destination>
            <groupId>a3bde8aa-2281-3c0f-0000-000000000000</groupId>
            <id>682068a0-3f51-3779-0000-000000000000</id>
            <type>PROCESSOR</type>
          </destination>
          <flowFileExpiration>0 sec</flowFileExpiration>
          <labelIndex>1</labelIndex>
          <name></name>
          <selectedRelationships>success</selectedRelationships>
          <source>
            <groupId>a3bde8aa-2281-3c0f-0000-000000000000</groupId>
            <id>8deb8d9a-504d-3481-0000-000000000000</id>
            <type>PROCESSOR</type>
          </source>
          <zIndex>0</zIndex>
        </connections>
        <processors>
          <id>8a514207-8235-3a53-0000-000000000000</id>
          <parentGroupId>a3bde8aa-2281-3c0f-0000-000000000000</parentGroupId>
          <position>
            <x>1374.0892429074338</x>
            <y>78.40566012523254</y>
          </position>
          <bundle>
            <artifact>nifi-standard-nar</artifact>
            <group>org.apache.nifi</group>
            <version>1.2.0.3.0.0.0-453</version>
          </bundle>
          <config>
            <bulletinLevel>WARN</bulletinLevel>
            <comments></comments>
            <concurrentlySchedulableTaskCount>0</concurrentlySchedulableTaskCount>
            <descriptors>
              <entry>
                <key>Character Set</key>
                <value>
                  <name>Character Set</name>
                </value>
              </entry>
              <entry>
                <key>Maximum Buffer Size</key>
                <value>
                  <name>Maximum Buffer Size</name>
                </value>
              </entry>
              <entry>
                <key>Maximum Capture Group Length</key>
                <value>
                  <name>Maximum Capture Group Length</name>
                </value>
              </entry>
              <entry>
                <key>Enable Canonical Equivalence</key>
                <value>
                  <name>Enable Canonical Equivalence</name>
                </value>
              </entry>
              <entry>
                <key>Enable Case-insensitive Matching</key>
                <value>
                  <name>Enable Case-insensitive Matching</name>
                </value>
              </entry>
              <entry>
                <key>Permit Whitespace and Comments in Pattern</key>
                <value>
                  <name>Permit Whitespace and Comments in Pattern</name>
                </value>
              </entry>
              <entry>
                <key>Enable DOTALL Mode</key>
                <value>
                  <name>Enable DOTALL Mode</name>
                </value>
              </entry>
              <entry>
                <key>Enable Literal Parsing of the Pattern</key>
                <value>
                  <name>Enable Literal Parsing of the Pattern</name>
                </value>
              </entry>
              <entry>
                <key>Enable Multiline Mode</key>
                <value>
                  <name>Enable Multiline Mode</name>
                </value>
              </entry>
              <entry>
                <key>Enable Unicode-aware Case Folding</key>
                <value>
                  <name>Enable Unicode-aware Case Folding</name>
                </value>
              </entry>
              <entry>
                <key>Enable Unicode Predefined Character Classes</key>
                <value>
                  <name>Enable Unicode Predefined Character Classes</name>
                </value>
              </entry>
              <entry>
                <key>Enable Unix Lines Mode</key>
                <value>
                  <name>Enable Unix Lines Mode</name>
                </value>
              </entry>
              <entry>
                <key>Include Capture Group 0</key>
                <value>
                  <name>Include Capture Group 0</name>
                </value>
              </entry>
              <entry>
                <key>extract-text-enable-repeating-capture-group</key>
                <value>
                  <name>extract-text-enable-repeating-capture-group</name>
                </value>
              </entry>
              <entry>
                <key>syslog_datetime</key>
                <value>
                  <name>syslog_datetime</name>
                </value>
              </entry>
            </descriptors>
            <executionNode>ALL</executionNode>
            <lossTolerant>false</lossTolerant>
            <penaltyDuration>30 sec</penaltyDuration>
            <properties>
              <entry>
                <key>Character Set</key>
                <value>UTF-8</value>
              </entry>
              <entry>
                <key>Maximum Buffer Size</key>
                <value>1 MB</value>
              </entry>
              <entry>
                <key>Maximum Capture Group Length</key>
                <value>1024</value>
              </entry>
              <entry>
                <key>Enable Canonical Equivalence</key>
                <value>false</value>
              </entry>
              <entry>
                <key>Enable Case-insensitive Matching</key>
                <value>false</value>
              </entry>
              <entry>
                <key>Permit Whitespace and Comments in Pattern</key>
                <value>false</value>
              </entry>
              <entry>
                <key>Enable DOTALL Mode</key>
                <value>false</value>
              </entry>
              <entry>
                <key>Enable Literal Parsing of the Pattern</key>
                <value>false</value>
              </entry>
              <entry>
                <key>Enable Multiline Mode</key>
                <value>false</value>
              </entry>
              <entry>
                <key>Enable Unicode-aware Case Folding</key>
                <value>false</value>
              </entry>
              <entry>
                <key>Enable Unicode Predefined Character Classes</key>
                <value>false</value>
              </entry>
              <entry>
                <key>Enable Unix Lines Mode</key>
                <value>false</value>
              </entry>
              <entry>
                <key>Include Capture Group 0</key>
                <value>true</value>
              </entry>
              <entry>
                <key>extract-text-enable-repeating-capture-group</key>
                <value>false</value>
              </entry>
              <entry>
                <key>syslog_datetime</key>
                <value>^(.*?) (.*?) </value>
              </entry>
            </properties>
            <runDurationMillis>0</runDurationMillis>
            <schedulingPeriod>0 sec</schedulingPeriod>
            <schedulingStrategy>EVENT_DRIVEN</schedulingStrategy>
            <yieldDuration>1 sec</yieldDuration>
          </config>
          <name>Extract Date to Attribute</name>
          <relationships>
            <autoTerminate>false</autoTerminate>
            <name>matched</name>
          </relationships>
          <relationships>
            <autoTerminate>false</autoTerminate>
            <name>unmatched</name>
          </relationships>
          <style></style>
          <type>org.apache.nifi.processors.standard.ExtractText</type>
        </processors>
        <processors>
          <id>8c85dac0-f6de-3a7c-0000-000000000000</id>
          <parentGroupId>a3bde8aa-2281-3c0f-0000-000000000000</parentGroupId>
          <position>
            <x>1368.3436118960826</x>
            <y>325.37612562335767</y>
          </position>
          <bundle>
            <artifact>nifi-update-attribute-nar</artifact>
            <group>org.apache.nifi</group>
            <version>1.2.0.3.0.0.0-453</version>
          </bundle>
          <config>
            <bulletinLevel>WARN</bulletinLevel>
            <comments></comments>
            <concurrentlySchedulableTaskCount>10</concurrentlySchedulableTaskCount>
            <descriptors>
              <entry>
                <key>Delete Attributes Expression</key>
                <value>
                  <name>Delete Attributes Expression</name>
                </value>
              </entry>
              <entry>
                <key>Store State</key>
                <value>
                  <name>Store State</name>
                </value>
              </entry>
              <entry>
                <key>Stateful Variables Initial Value</key>
                <value>
                  <name>Stateful Variables Initial Value</name>
                </value>
              </entry>
              <entry>
                <key>host</key>
                <value>
                  <name>host</name>
                </value>
              </entry>
              <entry>
                <key>source</key>
                <value>
                  <name>source</name>
                </value>
              </entry>
            </descriptors>
            <executionNode>ALL</executionNode>
            <lossTolerant>false</lossTolerant>
            <penaltyDuration>30 sec</penaltyDuration>
            <properties>
              <entry>
                <key>Delete Attributes Expression</key>
              </entry>
              <entry>
                <key>Store State</key>
                <value>Do not store state</value>
              </entry>
              <entry>
                <key>Stateful Variables Initial Value</key>
              </entry>
              <entry>
                <key>host</key>
                <value>${hostsource:substringBefore('_')}</value>
              </entry>
              <entry>
                <key>source</key>
                <value>${hostsource:substringAfter('_')}</value>
              </entry>
            </properties>
            <runDurationMillis>0</runDurationMillis>
            <schedulingPeriod>0 sec</schedulingPeriod>
            <schedulingStrategy>TIMER_DRIVEN</schedulingStrategy>
            <yieldDuration>1 sec</yieldDuration>
          </config>
          <name>Extract Splunk Attributes</name>
          <relationships>
            <autoTerminate>false</autoTerminate>
            <name>success</name>
          </relationships>
          <style></style>
          <type>org.apache.nifi.processors.attributes.UpdateAttribute</type>
        </processors>
        <processors>
          <id>8deb8d9a-504d-3481-0000-000000000000</id>
          <parentGroupId>a3bde8aa-2281-3c0f-0000-000000000000</parentGroupId>
          <position>
            <x>1378.477024909067</x>
            <y>567.9024746514162</y>
          </position>
          <bundle>
            <artifact>nifi-update-attribute-nar</artifact>
            <group>org.apache.nifi</group>
            <version>1.2.0.3.0.0.0-453</version>
          </bundle>
          <config>
            <bulletinLevel>WARN</bulletinLevel>
            <comments></comments>
            <concurrentlySchedulableTaskCount>10</concurrentlySchedulableTaskCount>
            <descriptors>
              <entry>
                <key>Delete Attributes Expression</key>
                <value>
                  <name>Delete Attributes Expression</name>
                </value>
              </entry>
              <entry>
                <key>Store State</key>
                <value>
                  <name>Store State</name>
                </value>
              </entry>
              <entry>
                <key>Stateful Variables Initial Value</key>
                <value>
                  <name>Stateful Variables Initial Value</name>
                </value>
              </entry>
              <entry>
                <key>filename</key>
                <value>
                  <name>filename</name>
                </value>
              </entry>
            </descriptors>
            <executionNode>ALL</executionNode>
            <lossTolerant>false</lossTolerant>
            <penaltyDuration>30 sec</penaltyDuration>
            <properties>
              <entry>
                <key>Delete Attributes Expression</key>
              </entry>
              <entry>
                <key>Store State</key>
                <value>Do not store state</value>
              </entry>
              <entry>
                <key>Stateful Variables Initial Value</key>
              </entry>
              <entry>
                <key>filename</key>
                <value>${allAttributes("syslog_year", "syslog_month", "syslog_day", "syslog_hour", "syslog_minute"):join("_")}.log</value>
              </entry>
            </properties>
            <runDurationMillis>0</runDurationMillis>
            <schedulingPeriod>0 sec</schedulingPeriod>
            <schedulingStrategy>TIMER_DRIVEN</schedulingStrategy>
            <yieldDuration>1 sec</yieldDuration>
          </config>
          <name>Create Filename (based on time variables)</name>
          <relationships>
            <autoTerminate>false</autoTerminate>
            <name>success</name>
          </relationships>
          <style></style>
          <type>org.apache.nifi.processors.attributes.UpdateAttribute</type>
        </processors>
        <processors>
          <id>c22eeee5-5b2a-3a7c-0000-000000000000</id>
          <parentGroupId>a3bde8aa-2281-3c0f-0000-000000000000</parentGroupId>
          <position>
            <x>855.8173407253743</x>
            <y>444.29894592330334</y>
          </position>
          <bundle>
            <artifact>nifi-standard-nar</artifact>
            <group>org.apache.nifi</group>
            <version>1.2.0.3.0.0.0-453</version>
          </bundle>
          <config>
            <bulletinLevel>WARN</bulletinLevel>
            <comments></comments>
            <concurrentlySchedulableTaskCount>10</concurrentlySchedulableTaskCount>
            <descriptors>
              <entry>
                <key>Merge Strategy</key>
                <value>
                  <name>Merge Strategy</name>
                </value>
              </entry>
              <entry>
                <key>Merge Format</key>
                <value>
                  <name>Merge Format</name>
                </value>
              </entry>
              <entry>
                <key>Attribute Strategy</key>
                <value>
                  <name>Attribute Strategy</name>
                </value>
              </entry>
              <entry>
                <key>Correlation Attribute Name</key>
                <value>
                  <name>Correlation Attribute Name</name>
                </value>
              </entry>
              <entry>
                <key>Minimum Number of Entries</key>
                <value>
                  <name>Minimum Number of Entries</name>
                </value>
              </entry>
              <entry>
                <key>Maximum Number of Entries</key>
                <value>
                  <name>Maximum Number of Entries</name>
                </value>
              </entry>
              <entry>
                <key>Minimum Group Size</key>
                <value>
                  <name>Minimum Group Size</name>
                </value>
              </entry>
              <entry>
                <key>Maximum Group Size</key>
                <value>
                  <name>Maximum Group Size</name>
                </value>
              </entry>
              <entry>
                <key>Max Bin Age</key>
                <value>
                  <name>Max Bin Age</name>
                </value>
              </entry>
              <entry>
                <key>Maximum number of Bins</key>
                <value>
                  <name>Maximum number of Bins</name>
                </value>
              </entry>
              <entry>
                <key>Delimiter Strategy</key>
                <value>
                  <name>Delimiter Strategy</name>
                </value>
              </entry>
              <entry>
                <key>Header File</key>
                <value>
                  <name>Header File</name>
                </value>
              </entry>
              <entry>
                <key>Footer File</key>
                <value>
                  <name>Footer File</name>
                </value>
              </entry>
              <entry>
                <key>Demarcator File</key>
                <value>
                  <name>Demarcator File</name>
                </value>
              </entry>
              <entry>
                <key>Compression Level</key>
                <value>
                  <name>Compression Level</name>
                </value>
              </entry>
              <entry>
                <key>Keep Path</key>
                <value>
                  <name>Keep Path</name>
                </value>
              </entry>
            </descriptors>
            <executionNode>ALL</executionNode>
            <lossTolerant>false</lossTolerant>
            <penaltyDuration>30 sec</penaltyDuration>
            <properties>
              <entry>
                <key>Merge Strategy</key>
                <value>Bin-Packing Algorithm</value>
              </entry>
              <entry>
                <key>Merge Format</key>
                <value>Binary Concatenation</value>
              </entry>
              <entry>
                <key>Attribute Strategy</key>
                <value>Keep All Unique Attributes</value>
              </entry>
              <entry>
                <key>Correlation Attribute Name</key>
              </entry>
              <entry>
                <key>Minimum Number of Entries</key>
                <value>1</value>
              </entry>
              <entry>
                <key>Maximum Number of Entries</key>
                <value>2000</value>
              </entry>
              <entry>
                <key>Minimum Group Size</key>
                <value>0 B</value>
              </entry>
              <entry>
                <key>Maximum Group Size</key>
              </entry>
              <entry>
                <key>Max Bin Age</key>
              </entry>
              <entry>
                <key>Maximum number of Bins</key>
                <value>5</value>
              </entry>
              <entry>
                <key>Delimiter Strategy</key>
                <value>Text</value>
              </entry>
              <entry>
                <key>Header File</key>
              </entry>
              <entry>
                <key>Footer File</key>
                <value>
</value>
              </entry>
              <entry>
                <key>Demarcator File</key>
                <value>
</value>
              </entry>
              <entry>
                <key>Compression Level</key>
                <value>1</value>
              </entry>
              <entry>
                <key>Keep Path</key>
                <value>true</value>
              </entry>
            </properties>
            <runDurationMillis>0</runDurationMillis>
            <schedulingPeriod>0 sec</schedulingPeriod>
            <schedulingStrategy>TIMER_DRIVEN</schedulingStrategy>
            <yieldDuration>1 sec</yieldDuration>
          </config>
          <name>MergeContent</name>
          <relationships>
            <autoTerminate>true</autoTerminate>
            <name>failure</name>
          </relationships>
          <relationships>
            <autoTerminate>false</autoTerminate>
            <name>merged</name>
          </relationships>
          <relationships>
            <autoTerminate>true</autoTerminate>
            <name>original</name>
          </relationships>
          <style></style>
          <type>org.apache.nifi.processors.standard.MergeContent</type>
        </processors>
        <processors>
          <id>ccf8c35c-2a61-3c00-0000-000000000000</id>
          <parentGroupId>a3bde8aa-2281-3c0f-0000-000000000000</parentGroupId>
          <position>
            <x>851.5049028405355</x>
            <y>210.59340313020698</y>
          </position>
          <bundle>
            <artifact>nifi-update-attribute-nar</artifact>
            <group>org.apache.nifi</group>
            <version>1.2.0.3.0.0.0-453</version>
          </bundle>
          <config>
            <bulletinLevel>WARN</bulletinLevel>
            <comments></comments>
            <concurrentlySchedulableTaskCount>10</concurrentlySchedulableTaskCount>
            <descriptors>
              <entry>
                <key>Delete Attributes Expression</key>
                <value>
                  <name>Delete Attributes Expression</name>
                </value>
              </entry>
              <entry>
                <key>Store State</key>
                <value>
                  <name>Store State</name>
                </value>
              </entry>
              <entry>
                <key>Stateful Variables Initial Value</key>
                <value>
                  <name>Stateful Variables Initial Value</name>
                </value>
              </entry>
              <entry>
                <key>hostsource</key>
                <value>
                  <name>hostsource</name>
                </value>
              </entry>