<?xml version="1.0" ?>
<template encoding-version="1.1">
  <description></description>
  <groupId>67103ed4-42b3-1434-0000-00005cdf3942</groupId>
  <name>nifi_meetup_flow</name>
  <snippet>
    <connections>
      <id>8176f51f-edf5-33b3-0000-000000000000</id>
      <parentGroupId>0f10b5ce-3965-375b-0000-000000000000</parentGroupId>
      <backPressureDataSizeThreshold>1 GB</backPressureDataSizeThreshold>
      <backPressureObjectThreshold>10000</backPressureObjectThreshold>
      <destination>
        <groupId>0f10b5ce-3965-375b-0000-000000000000</groupId>
        <id>e8f7422b-c2d6-3010-0000-000000000000</id>
        <type>PROCESSOR</type>
      </destination>
      <flowFileExpiration>0 sec</flowFileExpiration>
      <labelIndex>1</labelIndex>
      <name></name>
      <selectedRelationships>success</selectedRelationships>
      <source>
        <groupId>0f10b5ce-3965-375b-0000-000000000000</groupId>
        <id>e4574efe-a79d-3496-0000-000000000000</id>
        <type>PROCESSOR</type>
      </source>
      <zIndex>0</zIndex>
    </connections>
    <connections>
      <id>87702682-e1d1-3cf9-0000-000000000000</id>
      <parentGroupId>0f10b5ce-3965-375b-0000-000000000000</parentGroupId>
      <backPressureDataSizeThreshold>1 GB</backPressureDataSizeThreshold>
      <backPressureObjectThreshold>10000</backPressureObjectThreshold>
      <destination>
        <groupId>0f10b5ce-3965-375b-0000-000000000000</groupId>
        <id>379b8ac4-e92d-3d9b-0000-000000000000</id>
        <type>PROCESSOR</type>
      </destination>
      <flowFileExpiration>0 sec</flowFileExpiration>
      <labelIndex>1</labelIndex>
      <name></name>
      <selectedRelationships>split</selectedRelationships>
      <source>
        <groupId>0f10b5ce-3965-375b-0000-000000000000</groupId>
        <id>d5b53713-9530-3d5f-0000-000000000000</id>
        <type>PROCESSOR</type>
      </source>
      <zIndex>0</zIndex>
    </connections>
    <connections>
      <id>a1ce24bf-d119-3ffb-0000-000000000000</id>
      <parentGroupId>0f10b5ce-3965-375b-0000-000000000000</parentGroupId>
      <backPressureDataSizeThreshold>1 GB</backPressureDataSizeThreshold>
      <backPressureObjectThreshold>10000</backPressureObjectThreshold>
      <destination>
        <groupId>0f10b5ce-3965-375b-0000-000000000000</groupId>
        <id>fe8b492f-9866-3475-0000-000000000000</id>
        <type>PROCESSOR</type>
      </destination>
      <flowFileExpiration>0 sec</flowFileExpiration>
      <labelIndex>1</labelIndex>
      <name></name>
      <selectedRelationships>data</selectedRelationships>
      <source>
        <groupId>0f10b5ce-3965-375b-0000-000000000000</groupId>
        <id>ec8b2ef0-97ff-3b64-0000-000000000000</id>
        <type>PROCESSOR</type>
      </source>
      <zIndex>0</zIndex>
    </connections>
    <connections>
      <id>b28920b7-ef27-3a56-0000-000000000000</id>
      <parentGroupId>0f10b5ce-3965-375b-0000-000000000000</parentGroupId>
      <backPressureDataSizeThreshold>1 GB</backPressureDataSizeThreshold>
      <backPressureObjectThreshold>10000</backPressureObjectThreshold>
      <bends>
        <x>1650.3781455862452</x>
        <y>40.0</y>
      </bends>
      <bends>
        <x>1650.3781455862452</x>
        <y>90.0</y>
      </bends>
      <destination>
        <groupId>0f10b5ce-3965-375b-0000-000000000000</groupId>
        <id>fe8b492f-9866-3475-0000-000000000000</id>
        <type>PROCESSOR</type>
      </destination>
      <flowFileExpiration>0 sec</flowFileExpiration>
      <labelIndex>1</labelIndex>
      <name></name>
      <selectedRelationships>failure</selectedRelationships>
      <source>
        <groupId>0f10b5ce-3965-375b-0000-000000000000</groupId>
        <id>fe8b492f-9866-3475-0000-000000000000</id>
        <type>PROCESSOR</type>
      </source>
      <zIndex>0</zIndex>
    </connections>
    <connections>
      <id>ded44f74-01be-3a6a-0000-000000000000</id>
      <parentGroupId>0f10b5ce-3965-375b-0000-000000000000</parentGroupId>
      <backPressureDataSizeThreshold>1 GB</backPressureDataSizeThreshold>
      <backPressureObjectThreshold>10000</backPressureObjectThreshold>
      <destination>
        <groupId>0f10b5ce-3965-375b-0000-000000000000</groupId>
        <id>d5b53713-9530-3d5f-0000-000000000000</id>
        <type>PROCESSOR</type>
      </destination>
      <flowFileExpiration>0 sec</flowFileExpiration>
      <labelIndex>1</labelIndex>
      <name></name>
      <selectedRelationships>matched</selectedRelationships>
      <source>
        <groupId>0f10b5ce-3965-375b-0000-000000000000</groupId>
        <id>e8f7422b-c2d6-3010-0000-000000000000</id>
        <type>PROCESSOR</type>
      </source>
      <zIndex>0</zIndex>
    </connections>
    <connections>
      <id>e7432608-d1b7-3f4d-0000-000000000000</id>
      <parentGroupId>0f10b5ce-3965-375b-0000-000000000000</parentGroupId>
      <backPressureDataSizeThreshold>1 GB</backPressureDataSizeThreshold>
      <backPressureObjectThreshold>10000</backPressureObjectThreshold>
      <destination>
        <groupId>0f10b5ce-3965-375b-0000-000000000000</groupId>
        <id>e4574efe-a79d-3496-0000-000000000000</id>
        <type>PROCESSOR</type>
      </destination>
      <flowFileExpiration>0 sec</flowFileExpiration>
      <labelIndex>1</labelIndex>
      <name></name>
      <selectedRelationships>text message</selectedRelationships>
      <source>
        <groupId>0f10b5ce-3965-375b-0000-000000000000</groupId>
        <id>23d75e93-302d-3eba-0000-000000000000</id>
        <type>PROCESSOR</type>
      </source>
      <zIndex>0</zIndex>
    </connections>
    <connections>
      <id>eea4e4f3-c288-3c07-0000-000000000000</id>
      <parentGroupId>0f10b5ce-3965-375b-0000-000000000000</parentGroupId>
      <backPressureDataSizeThreshold>1 GB</backPressureDataSizeThreshold>
      <backPressureObjectThreshold>10000</backPressureObjectThreshold>
      <destination>
        <groupId>0f10b5ce-3965-375b-0000-000000000000</groupId>
        <id>6591d70d-ab3e-363a-0000-000000000000</id>
        <type>PROCESSOR</type>
      </destination>
      <flowFileExpiration>0 sec</flowFileExpiration>
      <labelIndex>1</labelIndex>
      <name></name>
      <selectedRelationships>deeplearning</selectedRelationships>
      <source>
        <groupId>0f10b5ce-3965-375b-0000-000000000000</groupId>
        <id>ec8b2ef0-97ff-3b64-0000-000000000000</id>
        <type>PROCESSOR</type>
      </source>
      <zIndex>0</zIndex>
    </connections>
    <connections>
      <id>f938985d-203e-386e-0000-000000000000</id>
      <parentGroupId>0f10b5ce-3965-375b-0000-000000000000</parentGroupId>
      <backPressureDataSizeThreshold>1 GB</backPressureDataSizeThreshold>
      <backPressureObjectThreshold>10000</backPressureObjectThreshold>
      <bends>
        <x>1057.3648758724366</x>
        <y>449.4422779690789</y>
      </bends>
      <bends>
        <x>1057.3648758724366</x>
        <y>499.4422779690789</y>
      </bends>
      <destination>
        <groupId>0f10b5ce-3965-375b-0000-000000000000</groupId>
        <id>379b8ac4-e92d-3d9b-0000-000000000000</id>
        <type>PROCESSOR</type>
      </destination>
      <flowFileExpiration>0 sec</flowFileExpiration>
      <labelIndex>1</labelIndex>
      <name></name>
      <selectedRelationships>failure</selectedRelationships>
      <source>
        <groupId>0f10b5ce-3965-375b-0000-000000000000</groupId>
        <id>379b8ac4-e92d-3d9b-0000-000000000000</id>
        <type>PROCESSOR</type>
      </source>
      <zIndex>0</zIndex>
    </connections>
    <connections>
      <id>3484a80d-09a5-3c7a-0000-000000000000</id>
      <parentGroupId>0f10b5ce-3965-375b-0000-000000000000</parentGroupId>
      <backPressureDataSizeThreshold>1 GB</backPressureDataSizeThreshold>
      <backPressureObjectThreshold>10000</backPressureObjectThreshold>
      <bends>
        <x>1061.0423012174688</x>
        <y>680.9170392158907</y>
      </bends>
      <bends>
        <x>1061.0423012174688</x>
        <y>730.9170392158907</y>
      </bends>
      <destination>
        <groupId>0f10b5ce-3965-375b-0000-000000000000</groupId>
        <id>d5b53713-9530-3d5f-0000-000000000000</id>
        <type>PROCESSOR</type>
      </destination>
      <flowFileExpiration>0 sec</flowFileExpiration>
      <labelIndex>1</labelIndex>
      <name></name>
      <selectedRelationships>failure</selectedRelationships>
      <source>
        <groupId>0f10b5ce-3965-375b-0000-000000000000</groupId>
        <id>d5b53713-9530-3d5f-0000-000000000000</id>
        <type>PROCESSOR</type>
      </source>
      <zIndex>0</zIndex>
    </connections>
    <connections>
      <id>380515c1-42c1-31b8-0000-000000000000</id>
      <parentGroupId>0f10b5ce-3965-375b-0000-000000000000</parentGroupId>
      <backPressureDataSizeThreshold>1 GB</backPressureDataSizeThreshold>
      <backPressureObjectThreshold>10000</backPressureObjectThreshold>
      <bends>
        <x>174.8224927175006</x>
        <y>816.4848005887092</y>
      </bends>
      <bends>
        <x>193.5704573085332</x>
        <y>818.8422319753338</y>
      </bends>
      <destination>
        <groupId>0f10b5ce-3965-375b-0000-000000000000</groupId>
        <id>e8f7422b-c2d6-3010-0000-000000000000</id>
        <type>PROCESSOR</type>
      </destination>
      <flowFileExpiration>0 sec</flowFileExpiration>
      <labelIndex>1</labelIndex>
      <name></name>
      <selectedRelationships>failure</selectedRelationships>
      <source>
        <groupId>0f10b5ce-3965-375b-0000-000000000000</groupId>
        <id>e8f7422b-c2d6-3010-0000-000000000000</id>
        <type>PROCESSOR</type>
      </source>
      <zIndex>0</zIndex>
    </connections>
    <connections>
      <id>5c353766-abe6-3622-0000-000000000000</id>
      <parentGroupId>0f10b5ce-3965-375b-0000-000000000000</parentGroupId>
      <backPressureDataSizeThreshold>1 GB</backPressureDataSizeThreshold>
      <backPressureObjectThreshold>10000</backPressureObjectThreshold>
      <destination>
        <groupId>0f10b5ce-3965-375b-0000-000000000000</groupId>
        <id>ec8b2ef0-97ff-3b64-0000-000000000000</id>
        <type>PROCESSOR</type>
      </destination>
      <flowFileExpiration>0 sec</flowFileExpiration>
      <labelIndex>1</labelIndex>
      <name></name>
      <selectedRelationships>success</selectedRelationships>
      <source>
        <groupId>0f10b5ce-3965-375b-0000-000000000000</groupId>
        <id>379b8ac4-e92d-3d9b-0000-000000000000</id>
        <type>PROCESSOR</type>
      </source>
      <zIndex>0</zIndex>
    </connections>
    <connections>
      <id>63f26d84-af5e-3de3-0000-000000000000</id>
      <parentGroupId>0f10b5ce-3965-375b-0000-000000000000</parentGroupId>
      <backPressureDataSizeThreshold>1 GB</backPressureDataSizeThreshold>
      <backPressureObjectThreshold>10000</backPressureObjectThreshold>
      <destination>
        <groupId>0f10b5ce-3965-375b-0000-000000000000</groupId>
        <id>f9f56af5-470f-34a2-0000-000000000000</id>
        <type>PROCESSOR</type>
      </destination>
      <flowFileExpiration>0 sec</flowFileExpiration>
      <labelIndex>1</labelIndex>
      <name></name>
      <selectedRelationships>analytics</selectedRelationships>
      <source>
        <groupId>0f10b5ce-3965-375b-0000-000000000000</groupId>
        <id>ec8b2ef0-97ff-3b64-0000-000000000000</id>
        <type>PROCESSOR</type>
      </source>
      <zIndex>0</zIndex>
    </connections>
    <controllerServices>
      <id>738ca1c1-4b3b-3c74-0000-000000000000</id>
      <parentGroupId>0f10b5ce-3965-375b-0000-000000000000</parentGroupId>
      <bundle>
        <artifact>nifi-websocket-services-jetty-nar</artifact>
        <group>org.apache.nifi</group>
        <version>1.2.0.3.0.0.0-453</version>
      </bundle>
      <comments></comments>
      <descriptors>
        <entry>
          <key>input-buffer-size</key>
          <value>
            <name>input-buffer-size</name>
          </value>
        </entry>
        <entry>
          <key>max-text-message-size</key>
          <value>
            <name>max-text-message-size</name>
          </value>
        </entry>
        <entry>
          <key>max-binary-message-size</key>
          <value>
            <name>max-binary-message-size</name>
          </value>
        </entry>
        <entry>
          <key>websocket-uri</key>
          <value>
            <name>websocket-uri</name>
          </value>
        </entry>
        <entry>
          <key>ssl-context-service</key>
          <value>
            <identifiesControllerService>org.apache.nifi.ssl.SSLContextService</identifiesControllerService>
            <name>ssl-context-service</name>
          </value>
        </entry>
        <entry>
          <key>connection-timeout</key>
          <value>
            <name>connection-timeout</name>
          </value>
        </entry>
        <entry>
          <key>session-maintenance-interval</key>
          <value>
            <name>session-maintenance-interval</name>
          </value>
        </entry>
      </descriptors>
      <name>JettyWebSocketClient</name>
      <persistsState>false</persistsState>
      <properties>
        <entry>
          <key>input-buffer-size</key>
          <value>4 kb</value>
        </entry>
        <entry>
          <key>max-text-message-size</key>
          <value>64 kb</value>
        </entry>
        <entry>
          <key>max-binary-message-size</key>
          <value>64 kb</value>
        </entry>
        <entry>
          <key>websocket-uri</key>
          <value>ws://stream.meetup.com/2/rsvps</value>
        </entry>
        <entry>
          <key>ssl-context-service</key>
        </entry>
        <entry>
          <key>connection-timeout</key>
          <value>3 sec</value>
        </entry>
        <entry>
          <key>session-maintenance-interval</key>
          <value>10 sec</value>
        </entry>
      </properties>
      <state>ENABLED</state>
      <type>org.apache.nifi.websocket.jetty.JettyWebSocketClient</type>
    </controllerServices>
    <processors>
      <id>d5b53713-9530-3d5f-0000-000000000000</id>
      <parentGroupId>0f10b5ce-3965-375b-0000-000000000000</parentGroupId>
      <position>
        <x>606.0423012174688</x>
        <y>640.9170392158907</y>
      </position>
      <bundle>
        <artifact>nifi-standard-nar</artifact>
        <group>org.apache.nifi</group>
        <version>1.2.0.3.0.0.0-453</version>
      </bundle>
      <config>
        <bulletinLevel>WARN</bulletinLevel>
        <comments></comments>
        <concurrentlySchedulableTaskCount>1</concurrentlySchedulableTaskCount>
        <descriptors>
          <entry>
            <key>JsonPath Expression</key>
            <value>
              <name>JsonPath Expression</name>
            </value>
          </entry>
          <entry>
            <key>Null Value Representation</key>
            <value>
              <name>Null Value Representation</name>
            </value>
          </entry>
        </descriptors>
        <executionNode>ALL</executionNode>
        <lossTolerant>false</lossTolerant>
        <penaltyDuration>30 sec</penaltyDuration>
        <properties>
          <entry>
            <key>JsonPath Expression</key>
            <value>$.group.group_topics</value>
          </entry>
          <entry>
            <key>Null Value Representation</key>
            <value>empty string</value>
          </entry>
        </properties>
        <runDurationMillis>0</runDurationMillis>
        <schedulingPeriod>0 sec</schedulingPeriod>
        <schedulingStrategy>TIMER_DRIVEN</schedulingStrategy>
        <yieldDuration>1 sec</yieldDuration>
      </config>
      <name>SplitJson</name>
      <relationships>
        <autoTerminate>false</autoTerminate>
        <name>failure</name>
      </relationships>
      <relationships>
        <autoTerminate>true</autoTerminate>
        <name>original</name>
      </relationships>
      <relationships>
        <autoTerminate>false</autoTerminate>
        <name>split</name>
      </relationships>
      <style></style>
      <type>org.apache.nifi.processors.standard.SplitJson</type>
    </processors>
    <processors>
      <id>e4574efe-a79d-3496-0000-000000000000</id>
      <parentGroupId>0f10b5ce-3965-375b-0000-000000000000</parentGroupId>
      <position>
        <x>0.7653319975524937</x>
        <y>408.72718440247934</y>
      </position>
      <bundle>
        <artifact>nifi-update-attribute-nar</artifact>
        <group>org.apache.nifi</group>
        <version>1.2.0.3.0.0.0-453</version>
      </bundle>
      <config>
        <bulletinLevel>WARN</bulletinLevel>
        <comments></comments>
        <concurrentlySchedulableTaskCount>1</concurrentlySchedulableTaskCount>
        <descriptors>
          <entry>
            <key>Delete Attributes Expression</key>
            <value>
              <name>Delete Attributes Expression</name>
            </value>
          </entry>
          <entry>
            <key>Store State</key>
            <value>
              <name>Store State</name>
            </value>
          </entry>
          <entry>
            <key>Stateful Variables Initial Value</key>
            <value>
              <name>Stateful Variables Initial Value</name>
            </value>
          </entry>
          <entry>
            <key>mime.type</key>
            <value>
              <name>mime.type</name>
            </value>
          </entry>
        </descriptors>
        <executionNode>ALL</executionNode>
        <lossTolerant>false</lossTolerant>
        <penaltyDuration>30 sec</penaltyDuration>
        <properties>
          <entry>
            <key>Delete Attributes Expression</key>
          </entry>
          <entry>
            <key>Store State</key>
            <value>Do not store state</value>
          </entry>
          <entry>
            <key>Stateful Variables Initial Value</key>
          </entry>
          <entry>
            <key>mime.type</key>
            <value>application/json</value>
          </entry>
        </properties>
        <runDurationMillis>0</runDurationMillis>
        <schedulingPeriod>0 sec</schedulingPeriod>
        <schedulingStrategy>TIMER_DRIVEN</schedulingStrategy>
        <yieldDuration>1 sec</yieldDuration>
      </config>
      <name>UpdateAttribute</name>
      <relationships>
        <autoTerminate>false</autoTerminate>
        <name>success</name>
      </relationships>
      <style></style>
      <type>org.apache.nifi.processors.attributes.UpdateAttribute</type>
    </processors>
    <processors>
      <id>e8f7422b-c2d6-3010-0000-000000000000</id>
      <parentGroupId>0f10b5ce-3965-375b-0000-000000000000</parentGroupId>
      <position>
        <x>0.0</x>
        <y>638.832712281603</y>
      </position>
      <bundle>
        <artifact>nifi-standard-nar</artifact>
        <group>org.apache.nifi</group>
        <version>1.2.0.3.0.0.0-453</version>
      </bundle>
      <config>
        <bulletinLevel>WARN</bulletinLevel>
        <comments></comments>
        <concurrentlySchedulableTaskCount>1</concurrentlySchedulableTaskCount>
        <descriptors>
          <entry>
            <key>Destination</key>
            <value>
              <name>Destination</name>
            </value>
          </entry>
          <entry>
            <key>Return Type</key>
            <value>
              <name>Return Type</name>
            </value>
          </entry>
          <entry>
            <key>Path Not Found Behavior</key>
            <value>
              <name>Path Not Found Behavior</name>
            </value>
          </entry>
          <entry>
            <key>Null Value Representation</key>
            <value>
              <name>Null Value Representation</name>
            </value>
          </entry>
          <entry>
            <key>event.name</key>
            <value>
              <name>event.name</name>
            </value>
          </entry>
          <entry>
            <key>event.url</key>
            <value>
              <name>event.url</name>
            </value>
          </entry>
          <entry>
            <key>group.city</key>
            <value>
              <name>group.city</name>
            </value>
          </entry>
          <entry>
            <key>group.country</key>
            <value>
              <name>group.country</name>
            </value>
          </entry>
          <entry>
            <key>group.name</key>
            <value>
              <name>group.name</name>
            </value>
          </entry>
          <entry>
            <key>group.state</key>
            <value>
              <name>group.state</name>
            </value>
          </entry>
          <entry>
            <key>venue.lat</key>
            <value>
              <name>venue.lat</name>
            </value>
          </entry>
          <entry>
            <key>venue.lon</key>
            <value>
              <name>venue.lon</name>
            </value>
          </entry>
          <entry>
            <key>venue.name</key>
            <value>
              <name>venue.name</name>
            </value>
          </entry>
        </descriptors>
        <executionNode>ALL</executionNode>
        <lossTolerant>false</lossTolerant>
        <penaltyDuration>30 sec</penaltyDuration>
        <properties>
          <entry>
            <key>Destination</key>
            <value>flowfile-attribute</value>
          </entry>
          <entry>
            <key>Return Type</key>
            <value>auto-detect</value>
          </entry>
          <entry>
            <key>Path Not Found Behavior</key>
            <value>ignore</value>
          </entry>
          <entry>
            <key>Null Value Representation</key>
            <value>empty string</value>
          </entry>
          <entry>
            <key>event.name</key>
            <value>$.event.event_name</value>
          </entry>
          <entry>
            <key>event.url</key>
            <value>$.event.event_url</value>
          </entry>
          <entry>
            <key>group.city</key>
            <value>$.group.group_city</value>
          </entry>
          <entry>
            <key>group.country</key>
            <value>$.group.group_country</value>
          </entry>
          <entry>
            <key>group.name</key>
            <value>$.group.group_name</value>
          </entry>
          <entry>
            <key>group.state</key>
            <value>$.group.group_state</value>
          </entry>
          <entry>
            <key>venue.lat</key>
            <value>$.venue.lat</value>
          </entry>
          <entry>
            <key>venue.lon</key>
            <value>$.venue.lon</value>
          </entry>
          <entry>
            <key>venue.name</key>
            <value>$.venue.venue_name</value>
          </entry>
        </properties>
        <runDurationMillis>0</runDurationMillis>
        <schedulingPeriod>0 sec</schedulingPeriod>
        <schedulingStrategy>TIMER_DRIVEN</schedulingStrategy>
        <yieldDuration>1 sec</yieldDuration>
      </config>
      <name>EvaluateJsonPath</name>
      <relationships>
        <autoTerminate>false</autoTerminate>
        <name>failure</name>
      </relationships>
      <relationships>
        <autoTerminate>false</autoTerminate>
        <name>matched</name>
      </relationships>
      <relationships>
        <autoTerminate>true</autoTerminate>
        <name>unmatched</name>
      </relationships>
      <style></style>
      <type>org.apache.nifi.processors.standard.EvaluateJsonPath</type>
    </processors>
    <processors>
      <id>ec8b2ef0-97ff-3b64-0000-000000000000</id>
      <parentGroupId>0f10b5ce-3965-375b-0000-000000000000</parentGroupId>
      <position>
        <x>604.777276437668</x>
        <y>158.1918302230165</y>
      </position>
      <bundle>
        <artifact>nifi-standard-nar</artifact>
        <group>org.apache.nifi</group>
        <version>1.2.0.3.0.0.0-453</version>
      </bundle>
      <config>
        <bulletinLevel>WARN</bulletinLevel>
        <comments></comments>
        <concurrentlySchedulableTaskCount>1</concurrentlySchedulableTaskCount>
        <descriptors>
          <entry>
            <key>Match Requirement</key>
            <value>
              <name>Match Requirement</name>
            </value>
          </entry>
          <entry>
            <key>Character Set</key>
            <value>
              <name>Character Set</name>
            </value>
          </entry>
          <entry>
            <key>Content Buffer Size</key>
            <value>
              <name>Content Buffer Size</name>
            </value>
          </entry>
          <entry>
            <key>analytics</key>
            <value>
              <name>analytics</name>
            </value>
          </entry>
          <entry>
            <key>data</key>
            <value>
              <name>data</name>
            </value>
          </entry>
          <entry>
            <key>deeplearning</key>
            <value>
              <name>deeplearning</name>
            </value>
          </entry>
        </descriptors>
        <executionNode>ALL</executionNode>
        <lossTolerant>false</lossTolerant>
        <penaltyDuration>30 sec</penaltyDuration>
        <properties>
          <entry>
            <key>Match Requirement</key>
            <value>content must contain match</value>
          </entry>
          <entry>
            <key>Character Set</key>
            <value>UTF-8</value>
          </entry>
          <entry>
            <key>Content Buffer Size</key>
            <value>1 MB</value>
          </entry>
          <entry>
            <key>analytics</key>
            <value>analytics</value>
          </entry>
          <entry>
            <key>data</key>
            <value>data</value>
          </entry>
          <entry>
            <key>deeplearning</key>
            <value>deep[ ]+learning</value>
          </entry>
        </properties>
        <runDurationMillis>0</runDurationMillis>
        <schedulingPeriod>0 sec</schedulingPeriod>
        <schedulingStrategy>TIMER_DRIVEN</schedulingStrategy>
        <yieldDuration>1 sec</yieldDuration>
      </config>
      <name>RouteOnContent</name>
      <relationships>
        <autoTerminate>false</autoTerminate>
        <name>analytics</name>
      </relationships>
      <relationships>
        <autoTerminate>false</autoTerminate>
        <name>data</name>
      </relationships>
      <relationships>
        <autoTerminate>false</autoTerminate>
        <name>deeplearning</name>
      </relationships>
      <relationships>
        <autoTerminate>true</autoTerminate>
        <name>unmatched</name>
      </relationships>
      <style></style>
      <type>org.apache.nifi.processors.standard.RouteOnContent</type>
    </processors>
    <processors>
      <id>f9f56af5-470f-34a2-0000-000000000000</id>
      <parentGroupId>0f10b5ce-3965-375b-0000-000000000000</parentGroupId>
      <position>
        <x>1195.3782102207865</x>
        <y>148.22443565414562</y>
      </position>
      <bundle>
        <artifact>nifi-kafka-0-10-nar</artifact>
        <group>org.apache.nifi</group>
        <version>1.2.0.3.0.0.0-453</version>
      </bundle>
      <config>
        <bulletinLevel>WARN</bulletinLevel>
        <comments></comments>
        <concurrentlySchedulableTaskCount>1</concurrentlySchedulableTaskCount>
        <descriptors>
          <entry>
            <key>bootstrap.servers</key>
            <value>
              <name>bootstrap.servers</name>
            </value>
          </entry>
          <entry>
            <key>security.protocol</key>
            <value>
              <name>security.protocol</name>
            </value>
          </entry>
          <entry>
            <key>sasl.kerberos.service.name</key>
            <value>
              <name>sasl.kerberos.service.name</name>
            </value>
          </entry>
          <entry>
            <key>sasl.kerberos.principal</key>
            <value>
              <name>sasl.kerberos.principal</name>
            </value>
          </entry>
          <entry>
            <key>sasl.kerberos.keytab</key>
            <value>
              <name>sasl.kerberos.keytab</name>
            </value>
          </entry>
          <entry>
            <key>ssl.context.service</key>
            <value>
              <identifiesControllerService>org.apache.nifi.ssl.SSLContextService</identifiesControllerService>
              <name>ssl.context.service</name>
            </value>
          </entry>
          <entry>
            <key>topic</key>
            <value>
              <name>topic</name>
            </value>
          </entry>
          <entry>
            <key>acks</key>
            <value>
              <name>acks</name>
            </value>
          </entry>
          <entry>
            <key>kafka-key</key>
            <value>
              <name>kafka-key</name>
            </value>
          </entry>
          <entry>
            <key>key-attribute-encoding</key>
            <value>
              <name>key-attribute-encoding</name>
            </value>
          </entry>
          <entry>
            <key>message-demarcator</key>
            <value>
              <name>message-demarcator</name>
            </value>
          </entry>
          <entry>
            <key>max.request.size</key>
            <value>
              <name>max.request.size</name>
            </value>
          </entry>
          <entry>
            <key>ack.wait.time</key>
            <value>
              <name>ack.wait.time</name>
            </value>
          </entry>
          <entry>
            <key>max.block.ms</key>
            <value>
              <name>max.block.ms</name>
            </value>
          </entry>
          <entry>
            <key>partitioner.class</key>
            <value>
              <name>partitioner.class</name>
            </value>
          </entry>
          <entry>
            <key>compression.type</key>
            <value>